data_image0
_cell_length_a       15.9923
_cell_length_b       16.9624
_cell_length_c       136.605
_cell_angle_alpha    90
_cell_angle_beta     90
_cell_angle_gamma    90

_symmetry_space_group_name_H-M    "P 1"
_symmetry_int_tables_number       1

loop_
  _symmetry_equiv_pos_as_xyz
  'x, y, z'

loop_
  _atom_site_label
  _atom_site_occupancy
  _atom_site_fract_x
  _atom_site_fract_y
  _atom_site_fract_z
  _atom_site_thermal_displace_type
  _atom_site_B_iso_or_equiv
  _atom_site_type_symbol
  Na1      1.0000 0.19221  0.23744  0.38065  Biso   1.000  Na
  Na2      1.0000 0.44221  0.23744  0.38065  Biso   1.000  Na
  Na3      1.0000 0.31721  0.07077  0.36602  Biso   1.000  Na
  Cl1      1.0000 0.31721  0.23744  0.36602  Biso   1.000  Cl
  Cl2      1.0000 0.44221  0.07077  0.38065  Biso   1.000  Cl
  Cl3      1.0000 0.19221  0.07077  0.38065  Biso   1.000  Cl
  Na4      1.0000 0.06721  0.07077  0.36602  Biso   1.000  Na
  Cl4      1.0000 0.06721  0.23744  0.36602  Biso   1.000  Cl
  Na5      1.0000 0.19221  0.23744  0.40992  Biso   1.000  Na
  Na6      1.0000 0.44221  0.23744  0.40992  Biso   1.000  Na
  Na7      1.0000 0.31721  0.07077  0.39529  Biso   1.000  Na
  Cl5      1.0000 0.31721  0.23744  0.39529  Biso   1.000  Cl
  Cl6      1.0000 0.44221  0.07077  0.40992  Biso   1.000  Cl
  Cl7      1.0000 0.19221  0.07077  0.40992  Biso   1.000  Cl
  Na8      1.0000 0.06721  0.07077  0.39529  Biso   1.000  Na
  Cl8      1.0000 0.06721  0.23744  0.39529  Biso   1.000  Cl
  Na9      1.0000 0.19221  0.23744  0.43919  Biso   1.000  Na
  Na10     1.0000 0.44221  0.23744  0.43919  Biso   1.000  Na
  Na11     1.0000 0.31721  0.07077  0.42455  Biso   1.000  Na
  Cl9      1.0000 0.31721  0.23744  0.42455  Biso   1.000  Cl
  Cl10     1.0000 0.44221  0.07077  0.43919  Biso   1.000  Cl
  Cl11     1.0000 0.19221  0.07077  0.43919  Biso   1.000  Cl
  Na12     1.0000 0.06721  0.07077  0.42455  Biso   1.000  Na
  Cl12     1.0000 0.06721  0.23744  0.42455  Biso   1.000  Cl
  Na13     1.0000 0.19221  0.23744  0.46846  Biso   1.000  Na
  Na14     1.0000 0.44221  0.23744  0.46846  Biso   1.000  Na
  Na15     1.0000 0.31721  0.07077  0.45382  Biso   1.000  Na
  Cl13     1.0000 0.31721  0.23744  0.45382  Biso   1.000  Cl
  Cl14     1.0000 0.44221  0.07077  0.46846  Biso   1.000  Cl
  Cl15     1.0000 0.19221  0.07077  0.46846  Biso   1.000  Cl
  Na16     1.0000 0.06721  0.07077  0.45382  Biso   1.000  Na
  Cl16     1.0000 0.06721  0.23744  0.45382  Biso   1.000  Cl
  Na17     1.0000 0.19221  0.57077  0.38065  Biso   1.000  Na
  Na18     1.0000 0.44221  0.57077  0.38065  Biso   1.000  Na
  Na19     1.0000 0.31721  0.40410  0.36602  Biso   1.000  Na
  Cl17     1.0000 0.31721  0.57077  0.36602  Biso   1.000  Cl
  Cl18     1.0000 0.44221  0.40410  0.38065  Biso   1.000  Cl
  Cl19     1.0000 0.19221  0.40410  0.38065  Biso   1.000  Cl
  Na20     1.0000 0.06721  0.40410  0.36602  Biso   1.000  Na
  Cl20     1.0000 0.06721  0.57077  0.36602  Biso   1.000  Cl
  Na21     1.0000 0.19221  0.57077  0.40992  Biso   1.000  Na
  Na22     1.0000 0.44221  0.57077  0.40992  Biso   1.000  Na
  Na23     1.0000 0.31721  0.40410  0.39529  Biso   1.000  Na
  Cl21     1.0000 0.31721  0.57077  0.39529  Biso   1.000  Cl
  Cl22     1.0000 0.44221  0.40410  0.40992  Biso   1.000  Cl
  Cl23     1.0000 0.19221  0.40410  0.40992  Biso   1.000  Cl
  Na24     1.0000 0.06721  0.40410  0.39529  Biso   1.000  Na
  Cl24     1.0000 0.06721  0.57077  0.39529  Biso   1.000  Cl
  Na25     1.0000 0.19221  0.57077  0.43919  Biso   1.000  Na
  Na26     1.0000 0.44221  0.57077  0.43919  Biso   1.000  Na
  Na27     1.0000 0.31721  0.40410  0.42455  Biso   1.000  Na
  Cl25     1.0000 0.31721  0.57077  0.42455  Biso   1.000  Cl
  Cl26     1.0000 0.44221  0.40410  0.43919  Biso   1.000  Cl
  Cl27     1.0000 0.19221  0.40410  0.43919  Biso   1.000  Cl
  Na28     1.0000 0.06721  0.40410  0.42455  Biso   1.000  Na
  Cl28     1.0000 0.06721  0.57077  0.42455  Biso   1.000  Cl
  Na29     1.0000 0.19221  0.57077  0.46846  Biso   1.000  Na
  Na30     1.0000 0.44221  0.57077  0.46846  Biso   1.000  Na
  Na31     1.0000 0.31721  0.40410  0.45382  Biso   1.000  Na
  Cl29     1.0000 0.31721  0.57077  0.45382  Biso   1.000  Cl
  Cl30     1.0000 0.44221  0.40410  0.46846  Biso   1.000  Cl
  Cl31     1.0000 0.19221  0.40410  0.46846  Biso   1.000  Cl
  Na32     1.0000 0.06721  0.40410  0.45382  Biso   1.000  Na
  Cl32     1.0000 0.06721  0.57077  0.45382  Biso   1.000  Cl
  Na33     1.0000 0.19221  0.90410  0.38065  Biso   1.000  Na
  Na34     1.0000 0.44221  0.90410  0.38065  Biso   1.000  Na
  Na35     1.0000 0.31721  0.73744  0.36602  Biso   1.000  Na
  Cl33     1.0000 0.31721  0.90410  0.36602  Biso   1.000  Cl
  Cl34     1.0000 0.44221  0.73744  0.38065  Biso   1.000  Cl
  Cl35     1.0000 0.19221  0.73744  0.38065  Biso   1.000  Cl
  Na36     1.0000 0.06721  0.73744  0.36602  Biso   1.000  Na
  Cl36     1.0000 0.06721  0.90410  0.36602  Biso   1.000  Cl
  Na37     1.0000 0.19221  0.90410  0.40992  Biso   1.000  Na
  Na38     1.0000 0.44221  0.90410  0.40992  Biso   1.000  Na
  Na39     1.0000 0.31721  0.73744  0.39529  Biso   1.000  Na
  Cl37     1.0000 0.31721  0.90410  0.39529  Biso   1.000  Cl
  Cl38     1.0000 0.44221  0.73744  0.40992  Biso   1.000  Cl
  Cl39     1.0000 0.19221  0.73744  0.40992  Biso   1.000  Cl
  Na40     1.0000 0.06721  0.73744  0.39529  Biso   1.000  Na
  Cl40     1.0000 0.06721  0.90410  0.39529  Biso   1.000  Cl
  Na41     1.0000 0.19221  0.90410  0.43919  Biso   1.000  Na
  Na42     1.0000 0.44221  0.90410  0.43919  Biso   1.000  Na
  Na43     1.0000 0.31721  0.73744  0.42455  Biso   1.000  Na
  Cl41     1.0000 0.31721  0.90410  0.42455  Biso   1.000  Cl
  Cl42     1.0000 0.44221  0.73744  0.43919  Biso   1.000  Cl
  Cl43     1.0000 0.19221  0.73744  0.43919  Biso   1.000  Cl
  Na44     1.0000 0.06721  0.73744  0.42455  Biso   1.000  Na
  Cl44     1.0000 0.06721  0.90410  0.42455  Biso   1.000  Cl
  Na45     1.0000 0.19221  0.90410  0.46846  Biso   1.000  Na
  Na46     1.0000 0.44221  0.90410  0.46846  Biso   1.000  Na
  Na47     1.0000 0.31721  0.73744  0.45382  Biso   1.000  Na
  Cl45     1.0000 0.31721  0.90410  0.45382  Biso   1.000  Cl
  Cl46     1.0000 0.44221  0.73744  0.46846  Biso   1.000  Cl
  Cl47     1.0000 0.19221  0.73744  0.46846  Biso   1.000  Cl
  Na48     1.0000 0.06721  0.73744  0.45382  Biso   1.000  Na
  Cl48     1.0000 0.06721  0.90410  0.45382  Biso   1.000  Cl
  Na49     1.0000 0.69221  0.23744  0.38065  Biso   1.000  Na
  Na50     1.0000 0.94221  0.23744  0.38065  Biso   1.000  Na
  Na51     1.0000 0.81721  0.07077  0.36602  Biso   1.000  Na
  Cl49     1.0000 0.81721  0.23744  0.36602  Biso   1.000  Cl
  Cl50     1.0000 0.94221  0.07077  0.38065  Biso   1.000  Cl
  Cl51     1.0000 0.69221  0.07077  0.38065  Biso   1.000  Cl
  Na52     1.0000 0.56721  0.07077  0.36602  Biso   1.000  Na
  Cl52     1.0000 0.56721  0.23744  0.36602  Biso   1.000  Cl
  Na53     1.0000 0.69221  0.23744  0.40992  Biso   1.000  Na
  Na54     1.0000 0.94221  0.23744  0.40992  Biso   1.000  Na
  Na55     1.0000 0.81721  0.07077  0.39529  Biso   1.000  Na
  Cl53     1.0000 0.81721  0.23744  0.39529  Biso   1.000  Cl
  Cl54     1.0000 0.94221  0.07077  0.40992  Biso   1.000  Cl
  Cl55     1.0000 0.69221  0.07077  0.40992  Biso   1.000  Cl
  Na56     1.0000 0.56721  0.07077  0.39529  Biso   1.000  Na
  Cl56     1.0000 0.56721  0.23744  0.39529  Biso   1.000  Cl
  Na57     1.0000 0.69221  0.23744  0.43919  Biso   1.000  Na
  Na58     1.0000 0.94221  0.23744  0.43919  Biso   1.000  Na
  Na59     1.0000 0.81721  0.07077  0.42455  Biso   1.000  Na
  Cl57     1.0000 0.81721  0.23744  0.42455  Biso   1.000  Cl
  Cl58     1.0000 0.94221  0.07077  0.43919  Biso   1.000  Cl
  Cl59     1.0000 0.69221  0.07077  0.43919  Biso   1.000  Cl
  Na60     1.0000 0.56721  0.07077  0.42455  Biso   1.000  Na
  Cl60     1.0000 0.56721  0.23744  0.42455  Biso   1.000  Cl
  Na61     1.0000 0.69221  0.23744  0.46846  Biso   1.000  Na
  Na62     1.0000 0.94221  0.23744  0.46846  Biso   1.000  Na
  Na63     1.0000 0.81721  0.07077  0.45382  Biso   1.000  Na
  Cl61     1.0000 0.81721  0.23744  0.45382  Biso   1.000  Cl
  Cl62     1.0000 0.94221  0.07077  0.46846  Biso   1.000  Cl
  Cl63     1.0000 0.69221  0.07077  0.46846  Biso   1.000  Cl
  Na64     1.0000 0.56721  0.07077  0.45382  Biso   1.000  Na
  Cl64     1.0000 0.56721  0.23744  0.45382  Biso   1.000  Cl
  Na65     1.0000 0.69221  0.57077  0.38065  Biso   1.000  Na
  Na66     1.0000 0.94221  0.57077  0.38065  Biso   1.000  Na
  Na67     1.0000 0.81721  0.40410  0.36602  Biso   1.000  Na
  Cl65     1.0000 0.81721  0.57077  0.36602  Biso   1.000  Cl
  Cl66     1.0000 0.94221  0.40410  0.38065  Biso   1.000  Cl
  Cl67     1.0000 0.69221  0.40410  0.38065  Biso   1.000  Cl
  Na68     1.0000 0.56721  0.40410  0.36602  Biso   1.000  Na
  Cl68     1.0000 0.56721  0.57077  0.36602  Biso   1.000  Cl
  Na69     1.0000 0.69221  0.57077  0.40992  Biso   1.000  Na
  Na70     1.0000 0.94221  0.57077  0.40992  Biso   1.000  Na
  Na71     1.0000 0.81721  0.40410  0.39529  Biso   1.000  Na
  Cl69     1.0000 0.81721  0.57077  0.39529  Biso   1.000  Cl
  Cl70     1.0000 0.94221  0.40410  0.40992  Biso   1.000  Cl
  Cl71     1.0000 0.69221  0.40410  0.40992  Biso   1.000  Cl
  Na72     1.0000 0.56721  0.40410  0.39529  Biso   1.000  Na
  Cl72     1.0000 0.56721  0.57077  0.39529  Biso   1.000  Cl
  Na73     1.0000 0.69221  0.57077  0.43919  Biso   1.000  Na
  Na74     1.0000 0.94221  0.57077  0.43919  Biso   1.000  Na
  Na75     1.0000 0.81721  0.40410  0.42455  Biso   1.000  Na
  Cl73     1.0000 0.81721  0.57077  0.42455  Biso   1.000  Cl
  Cl74     1.0000 0.94221  0.40410  0.43919  Biso   1.000  Cl
  Cl75     1.0000 0.69221  0.40410  0.43919  Biso   1.000  Cl
  Na76     1.0000 0.56721  0.40410  0.42455  Biso   1.000  Na
  Cl76     1.0000 0.56721  0.57077  0.42455  Biso   1.000  Cl
  Na77     1.0000 0.69221  0.57077  0.46846  Biso   1.000  Na
  Na78     1.0000 0.94221  0.57077  0.46846  Biso   1.000  Na
  Na79     1.0000 0.81721  0.40410  0.45382  Biso   1.000  Na
  Cl77     1.0000 0.81721  0.57077  0.45382  Biso   1.000  Cl
  Cl78     1.0000 0.94221  0.40410  0.46846  Biso   1.000  Cl
  Cl79     1.0000 0.69221  0.40410  0.46846  Biso   1.000  Cl
  Na80     1.0000 0.56721  0.40410  0.45382  Biso   1.000  Na
  Cl80     1.0000 0.56721  0.57077  0.45382  Biso   1.000  Cl
  Na81     1.0000 0.69221  0.90410  0.38065  Biso   1.000  Na
  Na82     1.0000 0.94221  0.90410  0.38065  Biso   1.000  Na
  Na83     1.0000 0.81721  0.73744  0.36602  Biso   1.000  Na
  Cl81     1.0000 0.81721  0.90410  0.36602  Biso   1.000  Cl
  Cl82     1.0000 0.94221  0.73744  0.38065  Biso   1.000  Cl
  Cl83     1.0000 0.69221  0.73744  0.38065  Biso   1.000  Cl
  Na84     1.0000 0.56721  0.73744  0.36602  Biso   1.000  Na
  Cl84     1.0000 0.56721  0.90410  0.36602  Biso   1.000  Cl
  Na85     1.0000 0.69221  0.90410  0.40992  Biso   1.000  Na
  Na86     1.0000 0.94221  0.90410  0.40992  Biso   1.000  Na
  Na87     1.0000 0.81721  0.73744  0.39529  Biso   1.000  Na
  Cl85     1.0000 0.81721  0.90410  0.39529  Biso   1.000  Cl
  Cl86     1.0000 0.94221  0.73744  0.40992  Biso   1.000  Cl
  Cl87     1.0000 0.69221  0.73744  0.40992  Biso   1.000  Cl
  Na88     1.0000 0.56721  0.73744  0.39529  Biso   1.000  Na
  Cl88     1.0000 0.56721  0.90410  0.39529  Biso   1.000  Cl
  Na89     1.0000 0.69221  0.90410  0.43919  Biso   1.000  Na
  Na90     1.0000 0.94221  0.90410  0.43919  Biso   1.000  Na
  Na91     1.0000 0.81721  0.73744  0.42455  Biso   1.000  Na
  Cl89     1.0000 0.81721  0.90410  0.42455  Biso   1.000  Cl
  Cl90     1.0000 0.94221  0.73744  0.43919  Biso   1.000  Cl
  Cl91     1.0000 0.69221  0.73744  0.43919  Biso   1.000  Cl
  Na92     1.0000 0.56721  0.73744  0.42455  Biso   1.000  Na
  Cl92     1.0000 0.56721  0.90410  0.42455  Biso   1.000  Cl
  Na93     1.0000 0.69221  0.90410  0.46846  Biso   1.000  Na
  Na94     1.0000 0.94221  0.90410  0.46846  Biso   1.000  Na
  Na95     1.0000 0.81721  0.73744  0.45382  Biso   1.000  Na
  Cl93     1.0000 0.81721  0.90410  0.45382  Biso   1.000  Cl
  Cl94     1.0000 0.94221  0.73744  0.46846  Biso   1.000  Cl
  Cl95     1.0000 0.69221  0.73744  0.46846  Biso   1.000  Cl
  Na96     1.0000 0.56721  0.73744  0.45382  Biso   1.000  Na
  Cl96     1.0000 0.56721  0.90410  0.45382  Biso   1.000  Cl
  Na97     1.0000 0.18605  0.24647  0.54618  Biso   1.000  Na
  Na98     1.0000 0.43605  0.24647  0.54618  Biso   1.000  Na
  Na99     1.0000 0.31105  0.07980  0.53154  Biso   1.000  Na
  Cl97     1.0000 0.31105  0.24647  0.53154  Biso   1.000  Cl
  Cl98     1.0000 0.43605  0.07980  0.54618  Biso   1.000  Cl
  Cl99     1.0000 0.18605  0.07980  0.54618  Biso   1.000  Cl
  Na100    1.0000 0.06105  0.07980  0.53154  Biso   1.000  Na
  Cl100    1.0000 0.06105  0.24647  0.53154  Biso   1.000  Cl
  Na101    1.0000 0.18605  0.24647  0.57545  Biso   1.000  Na
  Na102    1.0000 0.43605  0.24647  0.57545  Biso   1.000  Na
  Na103    1.0000 0.31105  0.07980  0.56081  Biso   1.000  Na
  Cl101    1.0000 0.31105  0.24647  0.56081  Biso   1.000  Cl
  Cl102    1.0000 0.43605  0.07980  0.57545  Biso   1.000  Cl
  Cl103    1.0000 0.18605  0.07980  0.57545  Biso   1.000  Cl
  Na104    1.0000 0.06105  0.07980  0.56081  Biso   1.000  Na
  Cl104    1.0000 0.06105  0.24647  0.56081  Biso   1.000  Cl
  Na105    1.0000 0.18605  0.24647  0.60471  Biso   1.000  Na
  Na106    1.0000 0.43605  0.24647  0.60471  Biso   1.000  Na
  Na107    1.0000 0.31105  0.07980  0.59008  Biso   1.000  Na
  Cl105    1.0000 0.31105  0.24647  0.59008  Biso   1.000  Cl
  Cl106    1.0000 0.43605  0.07980  0.60471  Biso   1.000  Cl
  Cl107    1.0000 0.18605  0.07980  0.60471  Biso   1.000  Cl
  Na108    1.0000 0.06105  0.07980  0.59008  Biso   1.000  Na
  Cl108    1.0000 0.06105  0.24647  0.59008  Biso   1.000  Cl
  Na109    1.0000 0.18605  0.24647  0.63398  Biso   1.000  Na
  Na110    1.0000 0.43605  0.24647  0.63398  Biso   1.000  Na
  Na111    1.0000 0.31105  0.07980  0.61935  Biso   1.000  Na
  Cl109    1.0000 0.31105  0.24647  0.61935  Biso   1.000  Cl
  Cl110    1.0000 0.43605  0.07980  0.63398  Biso   1.000  Cl
  Cl111    1.0000 0.18605  0.07980  0.63398  Biso   1.000  Cl
  Na112    1.0000 0.06105  0.07980  0.61935  Biso   1.000  Na
  Cl112    1.0000 0.06105  0.24647  0.61935  Biso   1.000  Cl
  Na113    1.0000 0.18605  0.57980  0.54618  Biso   1.000  Na
  Na114    1.0000 0.43605  0.57980  0.54618  Biso   1.000  Na
  Na115    1.0000 0.31105  0.41314  0.53154  Biso   1.000  Na
  Cl113    1.0000 0.31105  0.57980  0.53154  Biso   1.000  Cl
  Cl114    1.0000 0.43605  0.41314  0.54618  Biso   1.000  Cl
  Cl115    1.0000 0.18605  0.41314  0.54618  Biso   1.000  Cl
  Na116    1.0000 0.06105  0.41314  0.53154  Biso   1.000  Na
  Cl116    1.0000 0.06105  0.57980  0.53154  Biso   1.000  Cl
  Na117    1.0000 0.18605  0.57980  0.57545  Biso   1.000  Na
  Na118    1.0000 0.43605  0.57980  0.57545  Biso   1.000  Na
  Na119    1.0000 0.31105  0.41314  0.56081  Biso   1.000  Na
  Cl117    1.0000 0.31105  0.57980  0.56081  Biso   1.000  Cl
  Cl118    1.0000 0.43605  0.41314  0.57545  Biso   1.000  Cl
  Cl119    1.0000 0.18605  0.41314  0.57545  Biso   1.000  Cl
  Na120    1.0000 0.06105  0.41314  0.56081  Biso   1.000  Na
  Cl120    1.0000 0.06105  0.57980  0.56081  Biso   1.000  Cl
  Na121    1.0000 0.18605  0.57980  0.60471  Biso   1.000  Na
  Na122    1.0000 0.43605  0.57980  0.60471  Biso   1.000  Na
  Na123    1.0000 0.31105  0.41314  0.59008  Biso   1.000  Na
  Cl121    1.0000 0.31105  0.57980  0.59008  Biso   1.000  Cl
  Cl122    1.0000 0.43605  0.41314  0.60471  Biso   1.000  Cl
  Cl123    1.0000 0.18605  0.41314  0.60471  Biso   1.000  Cl
  Na124    1.0000 0.06105  0.41314  0.59008  Biso   1.000  Na
  Cl124    1.0000 0.06105  0.57980  0.59008  Biso   1.000  Cl
  Na125    1.0000 0.18605  0.57980  0.63398  Biso   1.000  Na
  Na126    1.0000 0.43605  0.57980  0.63398  Biso   1.000  Na
  Na127    1.0000 0.31105  0.41314  0.61935  Biso   1.000  Na
  Cl125    1.0000 0.31105  0.57980  0.61935  Biso   1.000  Cl
  Cl126    1.0000 0.43605  0.41314  0.63398  Biso   1.000  Cl
  Cl127    1.0000 0.18605  0.41314  0.63398  Biso   1.000  Cl
  Na128    1.0000 0.06105  0.41314  0.61935  Biso   1.000  Na
  Cl128    1.0000 0.06105  0.57980  0.61935  Biso   1.000  Cl
  Na129    1.0000 0.18605  0.91314  0.54618  Biso   1.000  Na
  Na130    1.0000 0.43605  0.91314  0.54618  Biso   1.000  Na
  Na131    1.0000 0.31105  0.74647  0.53154  Biso   1.000  Na
  Cl129    1.0000 0.31105  0.91314  0.53154  Biso   1.000  Cl
  Cl130    1.0000 0.43605  0.74647  0.54618  Biso   1.000  Cl
  Cl131    1.0000 0.18605  0.74647  0.54618  Biso   1.000  Cl
  Na132    1.0000 0.06105  0.74647  0.53154  Biso   1.000  Na
  Cl132    1.0000 0.06105  0.91314  0.53154  Biso   1.000  Cl
  Na133    1.0000 0.18605  0.91314  0.57545  Biso   1.000  Na
  Na134    1.0000 0.43605  0.91314  0.57545  Biso   1.000  Na
  Na135    1.0000 0.31105  0.74647  0.56081  Biso   1.000  Na
  Cl133    1.0000 0.31105  0.91314  0.56081  Biso   1.000  Cl
  Cl134    1.0000 0.43605  0.74647  0.57545  Biso   1.000  Cl
  Cl135    1.0000 0.18605  0.74647  0.57545  Biso   1.000  Cl
  Na136    1.0000 0.06105  0.74647  0.56081  Biso   1.000  Na
  Cl136    1.0000 0.06105  0.91314  0.56081  Biso   1.000  Cl
  Na137    1.0000 0.18605  0.91314  0.60471  Biso   1.000  Na
  Na138    1.0000 0.43605  0.91314  0.60471  Biso   1.000  Na
  Na139    1.0000 0.31105  0.74647  0.59008  Biso   1.000  Na
  Cl137    1.0000 0.31105  0.91314  0.59008  Biso   1.000  Cl
  Cl138    1.0000 0.43605  0.74647  0.60471  Biso   1.000  Cl
  Cl139    1.0000 0.18605  0.74647  0.60471  Biso   1.000  Cl
  Na140    1.0000 0.06105  0.74647  0.59008  Biso   1.000  Na
  Cl140    1.0000 0.06105  0.91314  0.59008  Biso   1.000  Cl
  Na141    1.0000 0.18605  0.91314  0.63398  Biso   1.000  Na
  Na142    1.0000 0.43605  0.91314  0.63398  Biso   1.000  Na
  Na143    1.0000 0.31105  0.74647  0.61935  Biso   1.000  Na
  Cl141    1.0000 0.31105  0.91314  0.61935  Biso   1.000  Cl
  Cl142    1.0000 0.43605  0.74647  0.63398  Biso   1.000  Cl
  Cl143    1.0000 0.18605  0.74647  0.63398  Biso   1.000  Cl
  Na144    1.0000 0.06105  0.74647  0.61935  Biso   1.000  Na
  Cl144    1.0000 0.06105  0.91314  0.61935  Biso   1.000  Cl
  Na145    1.0000 0.68605  0.24647  0.54618  Biso   1.000  Na
  Na146    1.0000 0.93605  0.24647  0.54618  Biso   1.000  Na
  Na147    1.0000 0.81105  0.07980  0.53154  Biso   1.000  Na
  Cl145    1.0000 0.81105  0.24647  0.53154  Biso   1.000  Cl
  Cl146    1.0000 0.93605  0.07980  0.54618  Biso   1.000  Cl
  Cl147    1.0000 0.68605  0.07980  0.54618  Biso   1.000  Cl
  Na148    1.0000 0.56105  0.07980  0.53154  Biso   1.000  Na
  Cl148    1.0000 0.56105  0.24647  0.53154  Biso   1.000  Cl
  Na149    1.0000 0.68605  0.24647  0.57545  Biso   1.000  Na
  Na150    1.0000 0.93605  0.24647  0.57545  Biso   1.000  Na
  Na151    1.0000 0.81105  0.07980  0.56081  Biso   1.000  Na
  Cl149    1.0000 0.81105  0.24647  0.56081  Biso   1.000  Cl
  Cl150    1.0000 0.93605  0.07980  0.57545  Biso   1.000  Cl
  Cl151    1.0000 0.68605  0.07980  0.57545  Biso   1.000  Cl
  Na152    1.0000 0.56105  0.07980  0.56081  Biso   1.000  Na
  Cl152    1.0000 0.56105  0.24647  0.56081  Biso   1.000  Cl
  Na153    1.0000 0.68605  0.24647  0.60471  Biso   1.000  Na
  Na154    1.0000 0.93605  0.24647  0.60471  Biso   1.000  Na
  Na155    1.0000 0.81105  0.07980  0.59008  Biso   1.000  Na
  Cl153    1.0000 0.81105  0.24647  0.59008  Biso   1.000  Cl
  Cl154    1.0000 0.93605  0.07980  0.60471  Biso   1.000  Cl
  Cl155    1.0000 0.68605  0.07980  0.60471  Biso   1.000  Cl
  Na156    1.0000 0.56105  0.07980  0.59008  Biso   1.000  Na
  Cl156    1.0000 0.56105  0.24647  0.59008  Biso   1.000  Cl
  Na157    1.0000 0.68605  0.24647  0.63398  Biso   1.000  Na
  Na158    1.0000 0.93605  0.24647  0.63398  Biso   1.000  Na
  Na159    1.0000 0.81105  0.07980  0.61935  Biso   1.000  Na
  Cl157    1.0000 0.81105  0.24647  0.61935  Biso   1.000  Cl
  Cl158    1.0000 0.93605  0.07980  0.63398  Biso   1.000  Cl
  Cl159    1.0000 0.68605  0.07980  0.63398  Biso   1.000  Cl
  Na160    1.0000 0.56105  0.07980  0.61935  Biso   1.000  Na
  Cl160    1.0000 0.56105  0.24647  0.61935  Biso   1.000  Cl
  Na161    1.0000 0.68605  0.57980  0.54618  Biso   1.000  Na
  Na162    1.0000 0.93605  0.57980  0.54618  Biso   1.000  Na
  Na163    1.0000 0.81105  0.41314  0.53154  Biso   1.000  Na
  Cl161    1.0000 0.81105  0.57980  0.53154  Biso   1.000  Cl
  Cl162    1.0000 0.93605  0.41314  0.54618  Biso   1.000  Cl
  Cl163    1.0000 0.68605  0.41314  0.54618  Biso   1.000  Cl
  Na164    1.0000 0.56105  0.41314  0.53154  Biso   1.000  Na
  Cl164    1.0000 0.56105  0.57980  0.53154  Biso   1.000  Cl
  Na165    1.0000 0.68605  0.57980  0.57545  Biso   1.000  Na
  Na166    1.0000 0.93605  0.57980  0.57545  Biso   1.000  Na
  Na167    1.0000 0.81105  0.41314  0.56081  Biso   1.000  Na
  Cl165    1.0000 0.81105  0.57980  0.56081  Biso   1.000  Cl
  Cl166    1.0000 0.93605  0.41314  0.57545  Biso   1.000  Cl
  Cl167    1.0000 0.68605  0.41314  0.57545  Biso   1.000  Cl
  Na168    1.0000 0.56105  0.41314  0.56081  Biso   1.000  Na
  Cl168    1.0000 0.56105  0.57980  0.56081  Biso   1.000  Cl
  Na169    1.0000 0.68605  0.57980  0.60471  Biso   1.000  Na
  Na170    1.0000 0.93605  0.57980  0.60471  Biso   1.000  Na
  Na171    1.0000 0.81105  0.41314  0.59008  Biso   1.000  Na
  Cl169    1.0000 0.81105  0.57980  0.59008  Biso   1.000  Cl
  Cl170    1.0000 0.93605  0.41314  0.60471  Biso   1.000  Cl
  Cl171    1.0000 0.68605  0.41314  0.60471  Biso   1.000  Cl
  Na172    1.0000 0.56105  0.41314  0.59008  Biso   1.000  Na
  Cl172    1.0000 0.56105  0.57980  0.59008  Biso   1.000  Cl
  Na173    1.0000 0.68605  0.57980  0.63398  Biso   1.000  Na
  Na174    1.0000 0.93605  0.57980  0.63398  Biso   1.000  Na
  Na175    1.0000 0.81105  0.41314  0.61935  Biso   1.000  Na
  Cl173    1.0000 0.81105  0.57980  0.61935  Biso   1.000  Cl
  Cl174    1.0000 0.93605  0.41314  0.63398  Biso   1.000  Cl
  Cl175    1.0000 0.68605  0.41314  0.63398  Biso   1.000  Cl
  Na176    1.0000 0.56105  0.41314  0.61935  Biso   1.000  Na
  Cl176    1.0000 0.56105  0.57980  0.61935  Biso   1.000  Cl
  Na177    1.0000 0.68605  0.91314  0.54618  Biso   1.000  Na
  Na178    1.0000 0.93605  0.91314  0.54618  Biso   1.000  Na
  Na179    1.0000 0.81105  0.74647  0.53154  Biso   1.000  Na
  Cl177    1.0000 0.81105  0.91314  0.53154  Biso   1.000  Cl
  Cl178    1.0000 0.93605  0.74647  0.54618  Biso   1.000  Cl
  Cl179    1.0000 0.68605  0.74647  0.54618  Biso   1.000  Cl
  Na180    1.0000 0.56105  0.74647  0.53154  Biso   1.000  Na
  Cl180    1.0000 0.56105  0.91314  0.53154  Biso   1.000  Cl
  Na181    1.0000 0.68605  0.91314  0.57545  Biso   1.000  Na
  Na182    1.0000 0.93605  0.91314  0.57545  Biso   1.000  Na
  Na183    1.0000 0.81105  0.74647  0.56081  Biso   1.000  Na
  Cl181    1.0000 0.81105  0.91314  0.56081  Biso   1.000  Cl
  Cl182    1.0000 0.93605  0.74647  0.57545  Biso   1.000  Cl
  Cl183    1.0000 0.68605  0.74647  0.57545  Biso   1.000  Cl
  Na184    1.0000 0.56105  0.74647  0.56081  Biso   1.000  Na
  Cl184    1.0000 0.56105  0.91314  0.56081  Biso   1.000  Cl
  Na185    1.0000 0.68605  0.91314  0.60471  Biso   1.000  Na
  Na186    1.0000 0.93605  0.91314  0.60471  Biso   1.000  Na
  Na187    1.0000 0.81105  0.74647  0.59008  Biso   1.000  Na
  Cl185    1.0000 0.81105  0.91314  0.59008  Biso   1.000  Cl
  Cl186    1.0000 0.93605  0.74647  0.60471  Biso   1.000  Cl
  Cl187    1.0000 0.68605  0.74647  0.60471  Biso   1.000  Cl
  Na188    1.0000 0.56105  0.74647  0.59008  Biso   1.000  Na
  Cl188    1.0000 0.56105  0.91314  0.59008  Biso   1.000  Cl
  Na189    1.0000 0.68605  0.91314  0.63398  Biso   1.000  Na
  Na190    1.0000 0.93605  0.91314  0.63398  Biso   1.000  Na
  Na191    1.0000 0.81105  0.74647  0.61935  Biso   1.000  Na
  Cl189    1.0000 0.81105  0.91314  0.61935  Biso   1.000  Cl
  Cl190    1.0000 0.93605  0.74647  0.63398  Biso   1.000  Cl
  Cl191    1.0000 0.68605  0.74647  0.63398  Biso   1.000  Cl
  Na192    1.0000 0.56105  0.74647  0.61935  Biso   1.000  Na
  Cl192    1.0000 0.56105  0.91314  0.61935  Biso   1.000  Cl
