128
Lattice="15.992349721734374 -1.5236e-12 -1.0772e-12 7.996174861064549 13.849781125338403 3.944e-13 7.996174861064549 4.616593708314052 13.057698868808782" Properties=species:S:1:pos:R:3:tags:I:1 pbc="T T T"
Na       0.03336008      -0.15604101      -0.04731477        0
Na       3.85250458       0.02776851      -0.11822193        0
Na       8.08242215      -0.01468244      -0.19369416        0
Na      11.63320960      -0.04105543      -0.14010742        0
Na       2.11165750       3.45242035      -0.04056891        0
Na       6.04106674       3.41170623       0.08209573        0
Na      10.10003340       3.34772491       0.18769878        0
Na      13.81811073       3.58747313       0.01174936        0
Na       3.82193547       7.04323185      -0.13408761        0
Na       7.91614396       7.03963599       0.02175031        0
Na      12.20191635       6.79083933      -0.01678975        0
Na      15.87084770       6.78542872       0.15958858        0
Na       5.96868350      10.20205118      -0.05343241        0
Na       9.99227164      10.31250094      -0.23472837        0
Na      13.88447556      10.47698979       0.21070606        0
Na      18.04071252      10.45032378       0.01820025        0
Na       2.07188924       1.15556536       3.27530286        0
Na       5.94932049       1.11779194       3.33865738        0
Na       9.81686759       1.12162733       3.19898090        0
Na      14.03724711       1.23075948       3.37641954        0
Na       3.88885834       4.40938339       3.09861988        0
Na       8.09585388       4.57618648       3.00679148        0
Na      12.10774065       4.49540999       2.77952457        0
Na      15.93992944       4.66843706       3.34273201        0
Na       6.01295073       7.90608446       3.53585458        0
Na      10.16553863       7.94074285       3.34188294        0
Na      14.08182854       7.82031743       3.24662423        0
Na      18.09185621       8.19869798       3.16068382        0
Na       8.08243826      11.37705163       3.48829993        0
Na      12.01942937      11.73928893       3.48502078        0
Na      16.25803182      11.44308655       3.19580226        0
Na      20.05668231      11.57115119       3.32322929        0
Na       4.01614204       2.05775088       6.46742201        0
Na       8.05155455       2.19628213       6.45419942        0
Na      11.89414942       2.31684966       6.55479371        0
Na      16.10285295       2.21884347       6.64928785        0
Na       6.10848703       5.95198505       6.33494949        0
Na       9.97394611       5.65635534       6.80854965        0
Na      13.98837706       5.47160258       6.52560032        0
Na      17.98325558       5.86870495       6.41362530        0
Na       7.94909560       9.01080681       6.66436010        0
Na      12.12744628       9.23106080       6.72412343        0
Na      15.97599598       9.01400864       6.65258503        0
Na      20.00542238       9.30649781       6.38963596        0
Na       9.97676794      12.50060222       6.42807702        0
Na      14.01648973      12.67751216       6.61366027        0
Na      17.94277045      12.74473923       6.50556830        0
Na      22.01779393      12.91496493       6.22681929        0
Na       6.06175055       3.27432386       9.61474701        0
Na       9.84381341       3.55258577       9.60709502        0
Na      13.98756732       3.43583663       9.75393452        0
Na      17.89186924       3.62426069       9.69155406        0
Na       8.04910075       6.89331752       9.94906758        0
Na      11.95741901       6.45679320       9.97094047        0
Na      15.96748558       7.18590523       9.81112946        0
Na      19.90442448       6.78455713      10.05574377        0
Na      10.07456304      10.39229778       9.66631004        0
Na      14.22057862      10.28708233       9.80204518        0
Na      18.01534196      10.48543446       9.98473813        0
Na      21.74957395      10.53462737       9.76231346        0
Na      12.29641618      13.57380772       9.99568402        0
Na      16.19543972      13.77918048       9.60729547        0
Na      19.98322504      13.39603499       9.82340821        0
Na      24.23168385      14.11355567       9.80459198        0
Cl       4.02293794       2.20034642       1.81604377        1
Cl       8.22537072       2.43708501       1.61771616        1
Cl      11.74407850       2.15902058       1.33953746        1
Cl      16.08109420       2.26623973       1.55193753        1
Cl       6.11337597       5.77700077       1.84097831        1
Cl       9.86513467       5.57541697       1.52839516        1
Cl      14.19916774       5.85329275       1.74319050        1
Cl      18.09206290       6.03446971       1.40707894        1
Cl       7.85911082       9.39826525       1.81432854        1
Cl      11.92255862       9.28136890       1.69947688        1
Cl      15.83440378       9.25806832       1.43650766        1
Cl      19.95170955       9.17919862       1.64839345        1
Cl       9.86569294      12.84796699       1.48378998        1
Cl      13.86189445      12.76672633       1.60047953        1
Cl      17.90043708      12.88363326       1.59379273        1
Cl      22.13617033      12.73354405       1.64679453        1
Cl       6.13625931       3.41691003       4.52922075        1
Cl      10.12874171       3.32675307       4.96104705        1
Cl      14.00519797       3.22990114       4.92665945        1
Cl      18.06068397       3.36658799       4.93599114        1
Cl       7.83635107       6.97293053       4.90966493        1
Cl      12.20876700       6.89360195       4.76937329        1
Cl      16.10092732       6.84492370       4.87897077        1
Cl      19.87303608       7.04706985       4.98908997        1
Cl       9.99686186      10.28806102       4.95309162        1
Cl      13.99911385      10.37863646       5.06258916        1
Cl      18.02800891      10.26632187       5.08590653        1
Cl      21.86545015      10.19688681       5.05425585        1
Cl      11.95651106      13.92669924       4.68425065        1
Cl      15.87539550      13.75571699       4.79743164        1
Cl      20.22909428      13.86382772       4.75327977        1
Cl      23.99240285      13.90783435       4.65547002        1
Cl       8.08114454       4.62290587       8.35382809        1
Cl      12.18295050       4.70371978       8.43149283        1
Cl      16.20001904       4.63452555       8.13921441        1
Cl      20.00920794       4.61462943       8.10547940        1
Cl       9.95226245       8.33889769       8.09852961        1
Cl      14.01017086       8.06535523       8.30389742        1
Cl      18.13409742       8.29549718       8.12459585        1
Cl      22.00727404       8.10102964       8.01371141        1
Cl      12.05931473      11.49258782       8.12193363        1
Cl      15.81953324      11.69256485       8.23813974        1
Cl      19.93387336      11.47346560       8.39834966        1
Cl      23.87199192      11.44845523       8.14887848        1
Cl      13.76393960      15.14427271       7.96723787        1
Cl      17.91926817      14.94172980       8.15473810        1
Cl      22.18070829      15.06656521       8.02251446        1
Cl      25.86651486      15.00500246       8.14513208        1
Cl      10.10769493       5.98720052      11.53783299        1
Cl      13.95405010       5.67852666      11.41397650        1
Cl      17.82855414       5.59994656      11.65703989        1
Cl      21.94545189       5.72984502      11.52506958        1
Cl      12.10387377       9.39216415      11.31520772        1
Cl      16.22576834       9.04831249      11.27454307        1
Cl      20.19005651       9.28642328      11.53422297        1
Cl      23.87315284       9.36355376      11.26205837        1
Cl      13.92299311      12.85023362      11.62247743        1
Cl      18.10959480      12.80038686      11.09858990        1
Cl      21.73216929      12.78431604      11.52090073        1
Cl      26.25907023      12.77387431      11.53480001        1
Cl      15.95370012      16.30161043      11.53706087        1
Cl      20.00629026      16.27238194      11.35868394        1
Cl      23.93141374      16.01929864      11.32646011        1
Cl      28.06409342      16.16485020      11.15563730        1
