data_image0
_cell_length_a       16.8929
_cell_length_b       16.8929
_cell_length_c       16.8929
_cell_angle_alpha    90
_cell_angle_beta     90
_cell_angle_gamma    90

_symmetry_space_group_name_H-M    "P 1"
_symmetry_int_tables_number       1

loop_
  _symmetry_equiv_pos_as_xyz
  'x, y, z'

loop_
  _atom_site_label
  _atom_site_occupancy
  _atom_site_fract_x
  _atom_site_fract_y
  _atom_site_fract_z
  _atom_site_thermal_displace_type
  _atom_site_B_iso_or_equiv
  _atom_site_type_symbol
  Na1      1.0000 0.00000  0.00000  0.00000  Biso   1.000  Na
  Na2      1.0000 0.33333  0.00000  0.00000  Biso   1.000  Na
  Na3      1.0000 0.66667  0.00000  0.00000  Biso   1.000  Na
  Na4      1.0000 0.00000  0.33333  0.00000  Biso   1.000  Na
  Na5      1.0000 0.33333  0.33333  0.00000  Biso   1.000  Na
  Na6      1.0000 0.66667  0.33333  0.00000  Biso   1.000  Na
  Na7      1.0000 0.00000  0.66667  0.00000  Biso   1.000  Na
  Na8      1.0000 0.33333  0.66667  0.00000  Biso   1.000  Na
  Na9      1.0000 0.66667  0.66667  0.00000  Biso   1.000  Na
  Na10     1.0000 0.00000  0.00000  0.33333  Biso   1.000  Na
  Na11     1.0000 0.33333  0.00000  0.33333  Biso   1.000  Na
  Na12     1.0000 0.66667  0.00000  0.33333  Biso   1.000  Na
  Na13     1.0000 0.00000  0.33333  0.33333  Biso   1.000  Na
  Na14     1.0000 0.33333  0.33333  0.33333  Biso   1.000  Na
  Na15     1.0000 0.66667  0.33333  0.33333  Biso   1.000  Na
  Na16     1.0000 0.00000  0.66667  0.33333  Biso   1.000  Na
  Na17     1.0000 0.33333  0.66667  0.33333  Biso   1.000  Na
  Na18     1.0000 0.66667  0.66667  0.33333  Biso   1.000  Na
  Na19     1.0000 0.00000  0.00000  0.66667  Biso   1.000  Na
  Na20     1.0000 0.33333  0.00000  0.66667  Biso   1.000  Na
  Na21     1.0000 0.66667  0.00000  0.66667  Biso   1.000  Na
  Na22     1.0000 0.00000  0.33333  0.66667  Biso   1.000  Na
  Na23     1.0000 0.33333  0.33333  0.66667  Biso   1.000  Na
  Na24     1.0000 0.66667  0.33333  0.66667  Biso   1.000  Na
  Na25     1.0000 0.00000  0.66667  0.66667  Biso   1.000  Na
  Na26     1.0000 0.33333  0.66667  0.66667  Biso   1.000  Na
  Na27     1.0000 0.66667  0.66667  0.66667  Biso   1.000  Na
  Na28     1.0000 0.00000  0.16667  0.16667  Biso   1.000  Na
  Na29     1.0000 0.33333  0.16667  0.16667  Biso   1.000  Na
  Na30     1.0000 0.66667  0.16667  0.16667  Biso   1.000  Na
  Na31     1.0000 0.00000  0.50000  0.16667  Biso   1.000  Na
  Na32     1.0000 0.33333  0.50000  0.16667  Biso   1.000  Na
  Na33     1.0000 0.66667  0.50000  0.16667  Biso   1.000  Na
  Na34     1.0000 0.00000  0.83333  0.16667  Biso   1.000  Na
  Na35     1.0000 0.33333  0.83333  0.16667  Biso   1.000  Na
  Na36     1.0000 0.66667  0.83333  0.16667  Biso   1.000  Na
  Na37     1.0000 0.00000  0.16667  0.50000  Biso   1.000  Na
  Na38     1.0000 0.33333  0.16667  0.50000  Biso   1.000  Na
  Na39     1.0000 0.66667  0.16667  0.50000  Biso   1.000  Na
  Na40     1.0000 0.00000  0.50000  0.50000  Biso   1.000  Na
  Na41     1.0000 0.33333  0.50000  0.50000  Biso   1.000  Na
  Na42     1.0000 0.66667  0.50000  0.50000  Biso   1.000  Na
  Na43     1.0000 0.00000  0.83333  0.50000  Biso   1.000  Na
  Na44     1.0000 0.33333  0.83333  0.50000  Biso   1.000  Na
  Na45     1.0000 0.66667  0.83333  0.50000  Biso   1.000  Na
  Na46     1.0000 0.00000  0.16667  0.83333  Biso   1.000  Na
  Na47     1.0000 0.33333  0.16667  0.83333  Biso   1.000  Na
  Na48     1.0000 0.66667  0.16667  0.83333  Biso   1.000  Na
  Na49     1.0000 0.00000  0.50000  0.83333  Biso   1.000  Na
  Na50     1.0000 0.33333  0.50000  0.83333  Biso   1.000  Na
  Na51     1.0000 0.66667  0.50000  0.83333  Biso   1.000  Na
  Na52     1.0000 0.00000  0.83333  0.83333  Biso   1.000  Na
  Na53     1.0000 0.33333  0.83333  0.83333  Biso   1.000  Na
  Na54     1.0000 0.66667  0.83333  0.83333  Biso   1.000  Na
  Na55     1.0000 0.16667  0.00000  0.16667  Biso   1.000  Na
  Na56     1.0000 0.50000  0.00000  0.16667  Biso   1.000  Na
  Na57     1.0000 0.83333  0.00000  0.16667  Biso   1.000  Na
  Na58     1.0000 0.16667  0.33333  0.16667  Biso   1.000  Na
  Na59     1.0000 0.50000  0.33333  0.16667  Biso   1.000  Na
  Na60     1.0000 0.83333  0.33333  0.16667  Biso   1.000  Na
  Na61     1.0000 0.16667  0.66667  0.16667  Biso   1.000  Na
  Na62     1.0000 0.50000  0.66667  0.16667  Biso   1.000  Na
  Na63     1.0000 0.83333  0.66667  0.16667  Biso   1.000  Na
  Na64     1.0000 0.16667  0.00000  0.50000  Biso   1.000  Na
  Na65     1.0000 0.50000  0.00000  0.50000  Biso   1.000  Na
  Na66     1.0000 0.83333  0.00000  0.50000  Biso   1.000  Na
  Na67     1.0000 0.16667  0.33333  0.50000  Biso   1.000  Na
  Na68     1.0000 0.50000  0.33333  0.50000  Biso   1.000  Na
  Na69     1.0000 0.83333  0.33333  0.50000  Biso   1.000  Na
  Na70     1.0000 0.16667  0.66667  0.50000  Biso   1.000  Na
  Na71     1.0000 0.50000  0.66667  0.50000  Biso   1.000  Na
  Na72     1.0000 0.83333  0.66667  0.50000  Biso   1.000  Na
  Na73     1.0000 0.16667  0.00000  0.83333  Biso   1.000  Na
  Na74     1.0000 0.50000  0.00000  0.83333  Biso   1.000  Na
  Na75     1.0000 0.83333  0.00000  0.83333  Biso   1.000  Na
  Na76     1.0000 0.16667  0.33333  0.83333  Biso   1.000  Na
  Na77     1.0000 0.50000  0.33333  0.83333  Biso   1.000  Na
  Na78     1.0000 0.83333  0.33333  0.83333  Biso   1.000  Na
  Na79     1.0000 0.16667  0.66667  0.83333  Biso   1.000  Na
  Na80     1.0000 0.50000  0.66667  0.83333  Biso   1.000  Na
  Na81     1.0000 0.83333  0.66667  0.83333  Biso   1.000  Na
  Na82     1.0000 0.16667  0.16667  0.00000  Biso   1.000  Na
  Na83     1.0000 0.50000  0.16667  0.00000  Biso   1.000  Na
  Na84     1.0000 0.83333  0.16667  0.00000  Biso   1.000  Na
  Na85     1.0000 0.16667  0.50000  0.00000  Biso   1.000  Na
  Na86     1.0000 0.50000  0.50000  0.00000  Biso   1.000  Na
  Na87     1.0000 0.83333  0.50000  0.00000  Biso   1.000  Na
  Na88     1.0000 0.16667  0.83333  0.00000  Biso   1.000  Na
  Na89     1.0000 0.50000  0.83333  0.00000  Biso   1.000  Na
  Na90     1.0000 0.83333  0.83333  0.00000  Biso   1.000  Na
  Na91     1.0000 0.16667  0.16667  0.33333  Biso   1.000  Na
  Na92     1.0000 0.50000  0.16667  0.33333  Biso   1.000  Na
  Na93     1.0000 0.83333  0.16667  0.33333  Biso   1.000  Na
  Na94     1.0000 0.16667  0.50000  0.33333  Biso   1.000  Na
  Na95     1.0000 0.50000  0.50000  0.33333  Biso   1.000  Na
  Na96     1.0000 0.83333  0.50000  0.33333  Biso   1.000  Na
  Na97     1.0000 0.16667  0.83333  0.33333  Biso   1.000  Na
  Na98     1.0000 0.50000  0.83333  0.33333  Biso   1.000  Na
  Na99     1.0000 0.83333  0.83333  0.33333  Biso   1.000  Na
  Na100    1.0000 0.16667  0.16667  0.66667  Biso   1.000  Na
  Na101    1.0000 0.50000  0.16667  0.66667  Biso   1.000  Na
  Na102    1.0000 0.83333  0.16667  0.66667  Biso   1.000  Na
  Na103    1.0000 0.16667  0.50000  0.66667  Biso   1.000  Na
  Na104    1.0000 0.50000  0.50000  0.66667  Biso   1.000  Na
  Na105    1.0000 0.83333  0.50000  0.66667  Biso   1.000  Na
  Na106    1.0000 0.16667  0.83333  0.66667  Biso   1.000  Na
  Na107    1.0000 0.50000  0.83333  0.66667  Biso   1.000  Na
  Na108    1.0000 0.83333  0.83333  0.66667  Biso   1.000  Na
  Cl1      1.0000 0.16667  0.16667  0.16667  Biso   1.000  Cl
  Cl2      1.0000 0.50000  0.16667  0.16667  Biso   1.000  Cl
  Cl3      1.0000 0.83333  0.16667  0.16667  Biso   1.000  Cl
  Cl4      1.0000 0.16667  0.50000  0.16667  Biso   1.000  Cl
  Cl5      1.0000 0.50000  0.50000  0.16667  Biso   1.000  Cl
  Cl6      1.0000 0.83333  0.50000  0.16667  Biso   1.000  Cl
  Cl7      1.0000 0.16667  0.83333  0.16667  Biso   1.000  Cl
  Cl8      1.0000 0.50000  0.83333  0.16667  Biso   1.000  Cl
  Cl9      1.0000 0.83333  0.83333  0.16667  Biso   1.000  Cl
  Cl10     1.0000 0.16667  0.16667  0.50000  Biso   1.000  Cl
  Cl11     1.0000 0.50000  0.16667  0.50000  Biso   1.000  Cl
  Cl12     1.0000 0.83333  0.16667  0.50000  Biso   1.000  Cl
  Cl13     1.0000 0.16667  0.50000  0.50000  Biso   1.000  Cl
  Cl14     1.0000 0.50000  0.50000  0.50000  Biso   1.000  Cl
  Cl15     1.0000 0.83333  0.50000  0.50000  Biso   1.000  Cl
  Cl16     1.0000 0.16667  0.83333  0.50000  Biso   1.000  Cl
  Cl17     1.0000 0.50000  0.83333  0.50000  Biso   1.000  Cl
  Cl18     1.0000 0.83333  0.83333  0.50000  Biso   1.000  Cl
  Cl19     1.0000 0.16667  0.16667  0.83333  Biso   1.000  Cl
  Cl20     1.0000 0.50000  0.16667  0.83333  Biso   1.000  Cl
  Cl21     1.0000 0.83333  0.16667  0.83333  Biso   1.000  Cl
  Cl22     1.0000 0.16667  0.50000  0.83333  Biso   1.000  Cl
  Cl23     1.0000 0.50000  0.50000  0.83333  Biso   1.000  Cl
  Cl24     1.0000 0.83333  0.50000  0.83333  Biso   1.000  Cl
  Cl25     1.0000 0.16667  0.83333  0.83333  Biso   1.000  Cl
  Cl26     1.0000 0.50000  0.83333  0.83333  Biso   1.000  Cl
  Cl27     1.0000 0.83333  0.83333  0.83333  Biso   1.000  Cl
  Cl28     1.0000 0.16667  0.00000  0.00000  Biso   1.000  Cl
  Cl29     1.0000 0.50000  0.00000  0.00000  Biso   1.000  Cl
  Cl30     1.0000 0.83333  0.00000  0.00000  Biso   1.000  Cl
  Cl31     1.0000 0.16667  0.33333  0.00000  Biso   1.000  Cl
  Cl32     1.0000 0.50000  0.33333  0.00000  Biso   1.000  Cl
  Cl33     1.0000 0.83333  0.33333  0.00000  Biso   1.000  Cl
  Cl34     1.0000 0.16667  0.66667  0.00000  Biso   1.000  Cl
  Cl35     1.0000 0.50000  0.66667  0.00000  Biso   1.000  Cl
  Cl36     1.0000 0.83333  0.66667  0.00000  Biso   1.000  Cl
  Cl37     1.0000 0.16667  0.00000  0.33333  Biso   1.000  Cl
  Cl38     1.0000 0.50000  0.00000  0.33333  Biso   1.000  Cl
  Cl39     1.0000 0.83333  0.00000  0.33333  Biso   1.000  Cl
  Cl40     1.0000 0.16667  0.33333  0.33333  Biso   1.000  Cl
  Cl41     1.0000 0.50000  0.33333  0.33333  Biso   1.000  Cl
  Cl42     1.0000 0.83333  0.33333  0.33333  Biso   1.000  Cl
  Cl43     1.0000 0.16667  0.66667  0.33333  Biso   1.000  Cl
  Cl44     1.0000 0.50000  0.66667  0.33333  Biso   1.000  Cl
  Cl45     1.0000 0.83333  0.66667  0.33333  Biso   1.000  Cl
  Cl46     1.0000 0.16667  0.00000  0.66667  Biso   1.000  Cl
  Cl47     1.0000 0.50000  0.00000  0.66667  Biso   1.000  Cl
  Cl48     1.0000 0.83333  0.00000  0.66667  Biso   1.000  Cl
  Cl49     1.0000 0.16667  0.33333  0.66667  Biso   1.000  Cl
  Cl50     1.0000 0.50000  0.33333  0.66667  Biso   1.000  Cl
  Cl51     1.0000 0.83333  0.33333  0.66667  Biso   1.000  Cl
  Cl52     1.0000 0.16667  0.66667  0.66667  Biso   1.000  Cl
  Cl53     1.0000 0.50000  0.66667  0.66667  Biso   1.000  Cl
  Cl54     1.0000 0.83333  0.66667  0.66667  Biso   1.000  Cl
  Cl55     1.0000 0.00000  0.16667  0.00000  Biso   1.000  Cl
  Cl56     1.0000 0.33333  0.16667  0.00000  Biso   1.000  Cl
  Cl57     1.0000 0.66667  0.16667  0.00000  Biso   1.000  Cl
  Cl58     1.0000 0.00000  0.50000  0.00000  Biso   1.000  Cl
  Cl59     1.0000 0.33333  0.50000  0.00000  Biso   1.000  Cl
  Cl60     1.0000 0.66667  0.50000  0.00000  Biso   1.000  Cl
  Cl61     1.0000 0.00000  0.83333  0.00000  Biso   1.000  Cl
  Cl62     1.0000 0.33333  0.83333  0.00000  Biso   1.000  Cl
  Cl63     1.0000 0.66667  0.83333  0.00000  Biso   1.000  Cl
  Cl64     1.0000 0.00000  0.16667  0.33333  Biso   1.000  Cl
  Cl65     1.0000 0.33333  0.16667  0.33333  Biso   1.000  Cl
  Cl66     1.0000 0.66667  0.16667  0.33333  Biso   1.000  Cl
  Cl67     1.0000 0.00000  0.50000  0.33333  Biso   1.000  Cl
  Cl68     1.0000 0.33333  0.50000  0.33333  Biso   1.000  Cl
  Cl69     1.0000 0.66667  0.50000  0.33333  Biso   1.000  Cl
  Cl70     1.0000 0.00000  0.83333  0.33333  Biso   1.000  Cl
  Cl71     1.0000 0.33333  0.83333  0.33333  Biso   1.000  Cl
  Cl72     1.0000 0.66667  0.83333  0.33333  Biso   1.000  Cl
  Cl73     1.0000 0.00000  0.16667  0.66667  Biso   1.000  Cl
  Cl74     1.0000 0.33333  0.16667  0.66667  Biso   1.000  Cl
  Cl75     1.0000 0.66667  0.16667  0.66667  Biso   1.000  Cl
  Cl76     1.0000 0.00000  0.50000  0.66667  Biso   1.000  Cl
  Cl77     1.0000 0.33333  0.50000  0.66667  Biso   1.000  Cl
  Cl78     1.0000 0.66667  0.50000  0.66667  Biso   1.000  Cl
  Cl79     1.0000 0.00000  0.83333  0.66667  Biso   1.000  Cl
  Cl80     1.0000 0.33333  0.83333  0.66667  Biso   1.000  Cl
  Cl81     1.0000 0.66667  0.83333  0.66667  Biso   1.000  Cl
  Cl82     1.0000 0.00000  0.00000  0.16667  Biso   1.000  Cl
  Cl83     1.0000 0.33333  0.00000  0.16667  Biso   1.000  Cl
  Cl84     1.0000 0.66667  0.00000  0.16667  Biso   1.000  Cl
  Cl85     1.0000 0.00000  0.33333  0.16667  Biso   1.000  Cl
  Cl86     1.0000 0.33333  0.33333  0.16667  Biso   1.000  Cl
  Cl87     1.0000 0.66667  0.33333  0.16667  Biso   1.000  Cl
  Cl88     1.0000 0.00000  0.66667  0.16667  Biso   1.000  Cl
  Cl89     1.0000 0.33333  0.66667  0.16667  Biso   1.000  Cl
  Cl90     1.0000 0.66667  0.66667  0.16667  Biso   1.000  Cl
  Cl91     1.0000 0.00000  0.00000  0.50000  Biso   1.000  Cl
  Cl92     1.0000 0.33333  0.00000  0.50000  Biso   1.000  Cl
  Cl93     1.0000 0.66667  0.00000  0.50000  Biso   1.000  Cl
  Cl94     1.0000 0.00000  0.33333  0.50000  Biso   1.000  Cl
  Cl95     1.0000 0.33333  0.33333  0.50000  Biso   1.000  Cl
  Cl96     1.0000 0.66667  0.33333  0.50000  Biso   1.000  Cl
  Cl97     1.0000 0.00000  0.66667  0.50000  Biso   1.000  Cl
  Cl98     1.0000 0.33333  0.66667  0.50000  Biso   1.000  Cl
  Cl99     1.0000 0.66667  0.66667  0.50000  Biso   1.000  Cl
  Cl100    1.0000 0.00000  0.00000  0.83333  Biso   1.000  Cl
  Cl101    1.0000 0.33333  0.00000  0.83333  Biso   1.000  Cl
  Cl102    1.0000 0.66667  0.00000  0.83333  Biso   1.000  Cl
  Cl103    1.0000 0.00000  0.33333  0.83333  Biso   1.000  Cl
  Cl104    1.0000 0.33333  0.33333  0.83333  Biso   1.000  Cl
  Cl105    1.0000 0.66667  0.33333  0.83333  Biso   1.000  Cl
  Cl106    1.0000 0.00000  0.66667  0.83333  Biso   1.000  Cl
  Cl107    1.0000 0.33333  0.66667  0.83333  Biso   1.000  Cl
  Cl108    1.0000 0.66667  0.66667  0.83333  Biso   1.000  Cl
